gridlabd-4/PG&E/MO0001.glm
// PG&E MO0001 Taxonomy Feeder Model

module powerflow
{
	solver_method NR;
	default_maximum_voltage_error 1e-4;
}

//*********************************************
// Conductor Objects
//*********************************************

// OHCond_1/0_AAC_I
object overhead_line_conductor {
	name OHCond_1/0_AAC_I;
	resistance 0.8820750323;
	geometric_mean_radius 0.0110971584;
	diameter 0.367999264;
}

// OHCond_2_CU_I
object overhead_line_conductor {
	name OHCond_2_CU_I;
	resistance 0.8920559109;
	geometric_mean_radius 0.0882773952;
	diameter 0.291999416;
}

// OHCond_267_AAC_I
object overhead_line_conductor {
	name OHCond_267_AAC_I;
	resistance 0.3498907874;
	geometric_mean_radius 0.0176954688;
	diameter 0.585998828;
}

// OHCond_715_AAC_I
object overhead_line_conductor {
	name OHCond_715_AAC_I;
	resistance 0.1324968876;
	geometric_mean_radius 0.0311920128;
	diameter 0.972998054;
}

// OHCond_4/0_ACSR_I
object overhead_line_conductor {
	name OHCond_4/0_ACSR_I;
	resistance 0.4287883292;
	geometric_mean_radius 0.0976549808;
	diameter 0.562998874;
}

// OHCond_4_ACSR_I
object overhead_line_conductor {
	name OHCond_4_ACSR_I;
	resistance 2.1715395317;
	geometric_mean_radius 0.0524265688;
	diameter 0.2499995;
}

// OHCond_6_CU_I
object overhead_line_conductor {
	name OHCond_6_CU_I;
	resistance 2.2113584416;
	geometric_mean_radius 0.00525866;
	diameter 0.161999676;
}

// OHCond_DEFAULT
object overhead_line_conductor {
	name OHCond_DEFAULT;
	resistance 0.27792611;
	geometric_mean_radius 0.01667552;
	diameter 0.52799107;
}

// OHCond_4/0_AAC_I
object overhead_line_conductor {
	name OHCond_4/0_AAC_I;
	resistance 0.4406874934;
	geometric_mean_radius 0.015765976;
	diameter 0.521998956;
}

// OHCond_4_CU_I
object overhead_line_conductor {
	name OHCond_4_CU_I;
	resistance 1.4181103321;
	geometric_mean_radius 0.006998208;
	diameter 0.231999536;
}

// OHCond_397_AAC_I
object overhead_line_conductor {
	name OHCond_397_AAC_I;
	resistance 0.2354936969;
	geometric_mean_radius 0.0227941632;
	diameter 0.722998554;
}

// UGCable_1/0_AL_PEC_22KV_3P
object underground_line_conductor {
	name UGCable_1/0_AL_PEC_22KV_3P;
	outer_diameter 0.6692917;
	conductor_gmr 0.01667552;
	conductor_diameter 0.52799107;
	conductor_resistance 0.27792611;
	neutral_gmr 0.01667552;
	neutral_resistance 0.27792611;
	neutral_diameter 0.52799107;
	neutral_strands 2;
}

// UGCable_1/0_AL_XLP-CON-ENCP-PE_22KV_3P
object underground_line_conductor {
	name UGCable_1/0_AL_XLP-CON-ENCP-PE_22KV_3P;
	outer_diameter 0.6692917;
	conductor_gmr 0.01667552;
	conductor_diameter 0.52799107;
	conductor_resistance 0.27792611;
	neutral_gmr 0.01667552;
	neutral_resistance 0.27792611;
	neutral_diameter 0.52799107;
	neutral_strands 2;
}

// UGCable_2_AL_XLP-CONC-ENCAP-PE_22KV_2P
object underground_line_conductor {
	name UGCable_2_AL_XLP-CONC-ENCAP-PE_22KV_2P;
	outer_diameter 0.669290518897;
	conductor_gmr 0.01667552;
	conductor_diameter 0.52799107;
	conductor_resistance 0.27792611;
	neutral_gmr 0.01667552;
	neutral_resistance 0.27792611;
	neutral_diameter 0.52799107;
	neutral_strands 2;
}

// UGCable_4_CU_1C_P&L_15KV_3P
object underground_line_conductor {
	name UGCable_4_CU_1C_P&L_15KV_3P;
	outer_diameter 0.6692917;
	conductor_gmr 0.01667552;
	conductor_diameter 0.52799107;
	conductor_resistance 0.27792611;
	neutral_gmr 0.01667552;
	neutral_resistance 0.27792611;
	neutral_diameter 0.52799107;
	neutral_strands 2;
}

// UGCable_1100_AL_EPR-CONC-ENCAP-PE_3P
object underground_line_conductor {
	name UGCable_1100_AL_EPR-CONC-ENCAP-PE_3P;
	outer_diameter 0.6692917;
	conductor_gmr 0.01667552;
	conductor_diameter 0.52799107;
	conductor_resistance 0.27792611;
	neutral_gmr 0.01667552;
	neutral_resistance 0.27792611;
	neutral_diameter 0.52799107;
	neutral_strands 2;
}

// UGCable_1/0_AL_XLP-CONC-PVC_22KV_3P
object underground_line_conductor {
	name UGCable_1/0_AL_XLP-CONC-PVC_22KV_3P;
	outer_diameter 0.6692917;
	conductor_gmr 0.01667552;
	conductor_diameter 0.52799107;
	conductor_resistance 0.27792611;
	neutral_gmr 0.01667552;
	neutral_resistance 0.27792611;
	neutral_diameter 0.52799107;
	neutral_strands 2;
}

// UGCable_2_CU_1C_P&L_15KV_3P
object underground_line_conductor {
	name UGCable_2_CU_1C_P&L_15KV_3P;
	outer_diameter 0.6692917;
	conductor_gmr 0.01667552;
	conductor_diameter 0.52799107;
	conductor_resistance 0.27792611;
	neutral_gmr 0.01667552;
	neutral_resistance 0.27792611;
	neutral_diameter 0.52799107;
	neutral_strands 2;
}

// UGCable_1/0_AL_XLP-CON-ENCP-PE_22KV_2P
object underground_line_conductor {
	name UGCable_1/0_AL_XLP-CON-ENCP-PE_22KV_2P;
	outer_diameter 0.669290518897;
	conductor_gmr 0.01667552;
	conductor_diameter 0.52799107;
	conductor_resistance 0.27792611;
	neutral_gmr 0.01667552;
	neutral_resistance 0.27792611;
	neutral_diameter 0.52799107;
	neutral_strands 2;
}

// UGCable_2_AL_PEC_22KV_3P
object underground_line_conductor {
	name UGCable_2_AL_PEC_22KV_3P;
	outer_diameter 0.6692917;
	conductor_gmr 0.01667552;
	conductor_diameter 0.52799107;
	conductor_resistance 0.27792611;
	neutral_gmr 0.01667552;
	neutral_resistance 0.27792611;
	neutral_diameter 0.52799107;
	neutral_strands 2;
}

// UGCable_2_AL_XLP-CONC-CIC_22KV_2P
object underground_line_conductor {
	name UGCable_2_AL_XLP-CONC-CIC_22KV_2P;
	outer_diameter 0.669290518897;
	conductor_gmr 0.01667552;
	conductor_diameter 0.52799107;
	conductor_resistance 0.27792611;
	neutral_gmr 0.01667552;
	neutral_resistance 0.27792611;
	neutral_diameter 0.52799107;
	neutral_strands 2;
}

// UGCable_1/0_AL_EPR-CONC-ENCAP-PE_3P
object underground_line_conductor {
	name UGCable_1/0_AL_EPR-CONC-ENCAP-PE_3P;
	outer_diameter 0.6692917;
	conductor_gmr 0.01667552;
	conductor_diameter 0.52799107;
	conductor_resistance 0.27792611;
	neutral_gmr 0.01667552;
	neutral_resistance 0.27792611;
	neutral_diameter 0.52799107;
	neutral_strands 2;
}

// UGCable_1/0_AL_XLP-CONC-CIC_22KV_2P
object underground_line_conductor {
	name UGCable_1/0_AL_XLP-CONC-CIC_22KV_2P;
	outer_diameter 0.669290518897;
	conductor_gmr 0.01667552;
	conductor_diameter 0.52799107;
	conductor_resistance 0.27792611;
	neutral_gmr 0.01667552;
	neutral_resistance 0.27792611;
	neutral_diameter 0.52799107;
	neutral_strands 2;
}

// UGCable_2_AL_XLP-CONC_22KV_3P
object underground_line_conductor {
	name UGCable_2_AL_XLP-CONC_22KV_3P;
	outer_diameter 0.6692917;
	conductor_gmr 0.01667552;
	conductor_diameter 0.52799107;
	conductor_resistance 0.27792611;
	neutral_gmr 0.01667552;
	neutral_resistance 0.27792611;
	neutral_diameter 0.52799107;
	neutral_strands 2;
}

// UGCable_2_AL_XLP-PVC_15KV_3P
object underground_line_conductor {
	name UGCable_2_AL_XLP-PVC_15KV_3P;
	outer_diameter 0.6692917;
	conductor_gmr 0.01667552;
	conductor_diameter 0.52799107;
	conductor_resistance 0.27792611;
	neutral_gmr 0.01667552;
	neutral_resistance 0.27792611;
	neutral_diameter 0.52799107;
	neutral_strands 2;
}

// UGCable_1000_AL_XLP-CONC-PVC_22KV_3P
object underground_line_conductor {
	name UGCable_1000_AL_XLP-CONC-PVC_22KV_3P;
	outer_diameter 0.6692917;
	conductor_gmr 0.01667552;
	conductor_diameter 0.52799107;
	conductor_resistance 0.27792611;
	neutral_gmr 0.01667552;
	neutral_resistance 0.27792611;
	neutral_diameter 0.52799107;
	neutral_strands 2;
}

// UGCable_2_AL_XLP-PVC_22KV_3P
object underground_line_conductor {
	name UGCable_2_AL_XLP-PVC_22KV_3P;
	outer_diameter 0.6692917;
	conductor_gmr 0.01667552;
	conductor_diameter 0.52799107;
	conductor_resistance 0.27792611;
	neutral_gmr 0.01667552;
	neutral_resistance 0.27792611;
	neutral_diameter 0.52799107;
	neutral_strands 2;
}

// UGCable_4/0_AL_XLP-CONC-PVC_22KV_3P
object underground_line_conductor {
	name UGCable_4/0_AL_XLP-CONC-PVC_22KV_3P;
	outer_diameter 0.6692917;
	conductor_gmr 0.01667552;
	conductor_diameter 0.52799107;
	conductor_resistance 0.27792611;
	neutral_gmr 0.01667552;
	neutral_resistance 0.27792611;
	neutral_diameter 0.52799107;
	neutral_strands 2;
}

// UGCable_700_AL_XLP-CONC-PVC_22KV_3P
object underground_line_conductor {
	name UGCable_700_AL_XLP-CONC-PVC_22KV_3P;
	outer_diameter 0.6692917;
	conductor_gmr 0.01667552;
	conductor_diameter 0.52799107;
	conductor_resistance 0.27792611;
	neutral_gmr 0.01667552;
	neutral_resistance 0.27792611;
	neutral_diameter 0.52799107;
	neutral_strands 2;
}

// UGCable_DEFAULT
object underground_line_conductor {
	name UGCable_DEFAULT;
	outer_diameter 0.6692917;
	conductor_gmr 0.01667552;
	conductor_diameter 0.52799107;
	conductor_resistance 0.27792611;
	neutral_gmr 0.01667552;
	neutral_resistance 0.27792611;
	neutral_diameter 0.52799107;
	neutral_strands 2;
}

// UGCable_2_AL_XLP-CONC-ENCAP-PE_22KV_3P
object underground_line_conductor {
	name UGCable_2_AL_XLP-CONC-ENCAP-PE_22KV_3P;
	outer_diameter 0.6692917;
	conductor_gmr 0.01667552;
	conductor_diameter 0.52799107;
	conductor_resistance 0.27792611;
	neutral_gmr 0.01667552;
	neutral_resistance 0.27792611;
	neutral_diameter 0.52799107;
	neutral_strands 2;
}

// UGCable_1/0_AL_XLP-CONC_22KV_3P
object underground_line_conductor {
	name UGCable_1/0_AL_XLP-CONC_22KV_3P;
	outer_diameter 0.6692917;
	conductor_gmr 0.01667552;
	conductor_diameter 0.52799107;
	conductor_resistance 0.27792611;
	neutral_gmr 0.01667552;
	neutral_resistance 0.27792611;
	neutral_diameter 0.52799107;
	neutral_strands 2;
}

// UGCable_4_CU_XLC_15KV_3P
object underground_line_conductor {
	name UGCable_4_CU_XLC_15KV_3P;
	outer_diameter 0.6692917;
	conductor_gmr 0.01667552;
	conductor_diameter 0.52799107;
	conductor_resistance 0.27792611;
	neutral_gmr 0.01667552;
	neutral_resistance 0.27792611;
	neutral_diameter 0.52799107;
	neutral_strands 2;
}

// UGCable_1/0_AL_XLP-CONC-PVC_22KV_2P
object underground_line_conductor {
	name UGCable_1/0_AL_XLP-CONC-PVC_22KV_2P;
	outer_diameter 0.669290518897;
	conductor_gmr 0.01667552;
	conductor_diameter 0.52799107;
	conductor_resistance 0.27792611;
	neutral_gmr 0.01667552;
	neutral_resistance 0.27792611;
	neutral_diameter 0.52799107;
	neutral_strands 2;
}

// UGCable_2_AL_XLP-CONC-PVC_22KV_3P
object underground_line_conductor {
	name UGCable_2_AL_XLP-CONC-PVC_22KV_3P;
	outer_diameter 0.6692917;
	conductor_gmr 0.01667552;
	conductor_diameter 0.52799107;
	conductor_resistance 0.27792611;
	neutral_gmr 0.01667552;
	neutral_resistance 0.27792611;
	neutral_diameter 0.52799107;
	neutral_strands 2;
}

// UGCable_4/0_AL_XLP-CONC-PVC_22KV_2P
object underground_line_conductor {
	name UGCable_4/0_AL_XLP-CONC-PVC_22KV_2P;
	outer_diameter 0.669290518897;
	conductor_gmr 0.01667552;
	conductor_diameter 0.52799107;
	conductor_resistance 0.27792611;
	neutral_gmr 0.01667552;
	neutral_resistance 0.27792611;
	neutral_diameter 0.52799107;
	neutral_strands 2;
}

// UGCable_2_AL_PEC_22KV_2P
object underground_line_conductor {
	name UGCable_2_AL_PEC_22KV_2P;
	outer_diameter 0.669290518897;
	conductor_gmr 0.01667552;
	conductor_diameter 0.52799107;
	conductor_resistance 0.27792611;
	neutral_gmr 0.01667552;
	neutral_resistance 0.27792611;
	neutral_diameter 0.52799107;
	neutral_strands 2;
}

// UGCable_1/0_AL_EPR-CONC-ENCAP-PE_2P
object underground_line_conductor {
	name UGCable_1/0_AL_EPR-CONC-ENCAP-PE_2P;
	outer_diameter 0.669290518897;
	conductor_gmr 0.01667552;
	conductor_diameter 0.52799107;
	conductor_resistance 0.27792611;
	neutral_gmr 0.01667552;
	neutral_resistance 0.27792611;
	neutral_diameter 0.52799107;
	neutral_strands 2;
}

// UGCable_2_AL_XLP-CONC-CIC_22KV_3P
object underground_line_conductor {
	name UGCable_2_AL_XLP-CONC-CIC_22KV_3P;
	outer_diameter 0.6692917;
	conductor_gmr 0.01667552;
	conductor_diameter 0.52799107;
	conductor_resistance 0.27792611;
	neutral_gmr 0.01667552;
	neutral_resistance 0.27792611;
	neutral_diameter 0.52799107;
	neutral_strands 2;
}

// UGCable_1/0_AL_XLP-CONC-CIC_22KV_3P
object underground_line_conductor {
	name UGCable_1/0_AL_XLP-CONC-CIC_22KV_3P;
	outer_diameter 0.6692917;
	conductor_gmr 0.01667552;
	conductor_diameter 0.52799107;
	conductor_resistance 0.27792611;
	neutral_gmr 0.01667552;
	neutral_resistance 0.27792611;
	neutral_diameter 0.52799107;
	neutral_strands 2;
}

// UGCable_600_AL_EPR-CONC-ENCAP-PE_3P
object underground_line_conductor {
	name UGCable_600_AL_EPR-CONC-ENCAP-PE_3P;
	outer_diameter 0.6692917;
	conductor_gmr 0.01667552;
	conductor_diameter 0.52799107;
	conductor_resistance 0.27792611;
	neutral_gmr 0.01667552;
	neutral_resistance 0.27792611;
	neutral_diameter 0.52799107;
	neutral_strands 2;
}

//*********************************************
// Line spacing objects
//*********************************************
// OHSpacing_HORIZONTAL_2P_88
object line_spacing {
	name OHSpacing_HORIZONTAL_2P_88;
	distance_AB 7.3332408792;
	distance_BC 7.3332408792;
	distance_AC 7.3332408792;
	distance_AN 9.9998784;
	distance_BN 9.9998784;
	distance_CN 9.9998784;
}

// OHSpacing_TRIANGULAR_3P_52
object line_spacing {
	name OHSpacing_TRIANGULAR_3P_52;
	distance_AB 4.3332773592;
	distance_BC 4.3332773592;
	distance_AC 4.3332773592;
	distance_AN 6.6665888808;
	distance_BN 6.6665888808;
	distance_CN 6.6665888808;
}

// UGSpacing_2_AL_XLP-CONC-CIC_22KV_3P
object line_spacing {
	name UGSpacing_2_AL_XLP-CONC-CIC_22KV_3P;
	distance_AB 0.147636;
	distance_BC 0.147636;
	distance_AC 0.295272;
}

// UGSpacing_1/0_AL_PEC_22KV_3P
object line_spacing {
	name UGSpacing_1/0_AL_PEC_22KV_3P;
	distance_AB 0.147636;
	distance_BC 0.147636;
	distance_AC 0.295272;
}

// UGSpacing_4_CU_XLC_15KV_3P
object line_spacing {
	name UGSpacing_4_CU_XLC_15KV_3P;
	distance_AB 0.147636;
	distance_BC 0.147636;
	distance_AC 0.295272;
}

// OHSpacing_TRIANGULAR_3P_58
object line_spacing {
	name OHSpacing_TRIANGULAR_3P_58;
	distance_AB 4.8329399184;
	distance_BC 4.8329399184;
	distance_AC 4.8329399184;
	distance_AN 4.8299412672;
	distance_BN 4.8299412672;
	distance_CN 4.8299412672;
}

// UGSpacing_1/0_AL_XLP-CONC-PVC_22KV_2P
object line_spacing {
	name UGSpacing_1/0_AL_XLP-CONC-PVC_22KV_2P;
	distance_AB 0.147636;
	distance_BC 0.0;
	distance_AC 0.0;
}

// OHSpacing_HORIZONTAL_3P_24
object line_spacing {
	name OHSpacing_HORIZONTAL_3P_24;
	distance_AB 1.99997568;
	distance_BC 1.99997568;
	distance_AC 1.99997568;
	distance_AN 2.7199669248;
	distance_BN 2.7199669248;
	distance_CN 2.7199669248;
}

// UGSpacing_2_CU_1C_P&L_15KV_3P
object line_spacing {
	name UGSpacing_2_CU_1C_P&L_15KV_3P;
	distance_AB 0.147636;
	distance_BC 0.147636;
	distance_AC 0.295272;
}

// UGSpacing_2_AL_XLP-CONC-ENCAP-PE_22KV_3P
object line_spacing {
	name UGSpacing_2_AL_XLP-CONC-ENCAP-PE_22KV_3P;
	distance_AB 0.147636;
	distance_BC 0.147636;
	distance_AC 0.295272;
}

// OHSpacing_DEFAULT
object line_spacing {
	name OHSpacing_DEFAULT;
	distance_AB 7.87392;
	distance_BC 11.81088;
	distance_AC 19.6848;
	distance_AN 16.1427362481;
	distance_BN 11.0041377309;
	distance_CN 12.0141802992;
	distance_AE 54.9534;
	distance_BE 54.9534;
	distance_CE 54.9534;
	distance_NE 45.111;
}

// UGSpacing_1000_AL_XLP-CONC-PVC_22KV_3P
object line_spacing {
	name UGSpacing_1000_AL_XLP-CONC-PVC_22KV_3P;
	distance_AB 0.147636;
	distance_BC 0.147636;
	distance_AC 0.295272;
}

// OHSpacing_TRIANGULAR_2P_30
object line_spacing {
	name OHSpacing_TRIANGULAR_2P_30;
	distance_AB 2.4999696;
	distance_BC 2.4999696;
	distance_AC 2.4999696;
	distance_AN 2.4999696;
	distance_BN 2.4999696;
	distance_CN 2.4999696;
}

// OHSpacing_VERTICAL_2P_30
object line_spacing {
	name OHSpacing_VERTICAL_2P_30;
	distance_AB 2.4999696;
	distance_BC 2.4999696;
	distance_AC 2.4999696;
	distance_AN 2.4999696;
	distance_BN 2.4999696;
	distance_CN 2.4999696;
}

// OHSpacing_VERTICAL_3P_30
object line_spacing {
	name OHSpacing_VERTICAL_3P_30;
	distance_AB 2.4999696;
	distance_BC 2.4999696;
	distance_AC 2.4999696;
	distance_AN 2.4999696;
	distance_BN 2.4999696;
	distance_CN 2.4999696;
}

// OHSpacing_TRIANGULAR_2P_39
object line_spacing {
	name OHSpacing_TRIANGULAR_2P_39;
	distance_AB 3.24996048;
	distance_BC 3.24996048;
	distance_AC 3.24996048;
	distance_AN 3.24996048;
	distance_BN 3.24996048;
	distance_CN 3.24996048;
}

// UGSpacing_4_CU_1C_P&L_15KV_3P
object line_spacing {
	name UGSpacing_4_CU_1C_P&L_15KV_3P;
	distance_AB 0.147636;
	distance_BC 0.147636;
	distance_AC 0.295272;
}

// OHSpacing_HORIZONTAL_1P_52
object line_spacing {
	name OHSpacing_HORIZONTAL_1P_52;
	distance_AB 4.3332773592;
	distance_BC 4.3332773592;
	distance_AC 4.3332773592;
	distance_AN 6.6665888808;
	distance_BN 6.6665888808;
	distance_CN 6.6665888808;
}

// UGSpacing_1/0_AL_EPR-CONC-ENCAP-PE_3P
object line_spacing {
	name UGSpacing_1/0_AL_EPR-CONC-ENCAP-PE_3P;
	distance_AB 0.147636;
	distance_BC 0.147636;
	distance_AC 0.295272;
}

// OHSpacing_HORIZONTAL_2P_56
object line_spacing {
	name OHSpacing_HORIZONTAL_2P_56;
	distance_AB 4.66660992;
	distance_BC 4.66660992;
	distance_AC 4.66660992;
	distance_AN 6.99991488;
	distance_BN 6.99991488;
	distance_CN 6.99991488;
}

// UGSpacing_1100_AL_EPR-CONC-ENCAP-PE_3P
object line_spacing {
	name UGSpacing_1100_AL_EPR-CONC-ENCAP-PE_3P;
	distance_AB 0.147636;
	distance_BC 0.147636;
	distance_AC 0.295272;
}

// OHSpacing_HORIZONTAL_2P_52
object line_spacing {
	name OHSpacing_HORIZONTAL_2P_52;
	distance_AB 4.3332773592;
	distance_BC 4.3332773592;
	distance_AC 4.3332773592;
	distance_AN 6.6665888808;
	distance_BN 6.6665888808;
	distance_CN 6.6665888808;
}

// UGSpacing_2_AL_XLP-PVC_22KV_3P
object line_spacing {
	name UGSpacing_2_AL_XLP-PVC_22KV_3P;
	distance_AB 0.147636;
	distance_BC 0.147636;
	distance_AC 0.295272;
}

// UGSpacing_4/0_AL_XLP-CONC-PVC_22KV_3P
object line_spacing {
	name UGSpacing_4/0_AL_XLP-CONC-PVC_22KV_3P;
	distance_AB 0.147636;
	distance_BC 0.147636;
	distance_AC 0.295272;
}

// OHSpacing_HORIZONTAL_3P_88
object line_spacing {
	name OHSpacing_HORIZONTAL_3P_88;
	distance_AB 7.3332408792;
	distance_BC 7.3332408792;
	distance_AC 7.3332408792;
	distance_AN 9.9998784;
	distance_BN 9.9998784;
	distance_CN 9.9998784;
}

// UGSpacing_2_AL_PEC_22KV_3P
object line_spacing {
	name UGSpacing_2_AL_PEC_22KV_3P;
	distance_AB 0.147636;
	distance_BC 0.147636;
	distance_AC 0.295272;
}

// OHSpacing_TRIANGULAR_3P_30
object line_spacing {
	name OHSpacing_TRIANGULAR_3P_30;
	distance_AB 2.4999696;
	distance_BC 2.4999696;
	distance_AC 2.4999696;
	distance_AN 4.9999392;
	distance_BN 4.9999392;
	distance_CN 4.9999392;
}

// OHSpacing_HORIZONTAL_3P_72
object line_spacing {
	name OHSpacing_HORIZONTAL_3P_72;
	distance_AB 5.99992704;
	distance_BC 5.99992704;
	distance_AC 5.99992704;
	distance_AN 8.1599007744;
	distance_BN 8.1599007744;
	distance_CN 8.1599007744;
}

// UGSpacing_DEFAULT
object line_spacing {
	name UGSpacing_DEFAULT;
	distance_AB 0.147636;
	distance_BC 0.147636;
	distance_AC 0.295272;
}

// OHSpacing_TRIANGULAR_3P_35
object line_spacing {
	name OHSpacing_TRIANGULAR_3P_35;
	distance_AB 2.9166312;
	distance_BC 2.9166312;
	distance_AC 2.9166312;
	distance_AN 5.49993312;
	distance_BN 5.49993312;
	distance_CN 5.49993312;
}

// OHSpacing_TRIANGULAR_3P_39
object line_spacing {
	name OHSpacing_TRIANGULAR_3P_39;
	distance_AB 3.24996048;
	distance_BC 3.24996048;
	distance_AC 3.24996048;
	distance_AN 4.4199462528;
	distance_BN 4.4199462528;
	distance_CN 4.4199462528;
}

// UGSpacing_2_AL_XLP-CONC_22KV_3P
object line_spacing {
	name UGSpacing_2_AL_XLP-CONC_22KV_3P;
	distance_AB 0.147636;
	distance_BC 0.147636;
	distance_AC 0.295272;
}

// UGSpacing_2_AL_XLP-CONC-ENCAP-PE_22KV_2P
object line_spacing {
	name UGSpacing_2_AL_XLP-CONC-ENCAP-PE_22KV_2P;
	distance_AB 0.147636;
	distance_BC 0.0;
	distance_AC 0.0;
}

// UGSpacing_1/0_AL_XLP-CON-ENCP-PE_22KV_2P
object line_spacing {
	name UGSpacing_1/0_AL_XLP-CON-ENCP-PE_22KV_2P;
	distance_AB 0.147636;
	distance_BC 0.0;
	distance_AC 0.0;
}

// UGSpacing_1/0_AL_XLP-CONC-CIC_22KV_2P
object line_spacing {
	name UGSpacing_1/0_AL_XLP-CONC-CIC_22KV_2P;
	distance_AB 0.147636;
	distance_BC 0.0;
	distance_AC 0.0;
}

// UGSpacing_1/0_AL_XLP-CONC_22KV_3P
object line_spacing {
	name UGSpacing_1/0_AL_XLP-CONC_22KV_3P;
	distance_AB 0.147636;
	distance_BC 0.147636;
	distance_AC 0.295272;
}

// OHSpacing_HORIZONTAL_3P_58
object line_spacing {
	name OHSpacing_HORIZONTAL_3P_58;
	distance_AB 4.83327456;
	distance_BC 4.83327456;
	distance_AC 4.83327456;
	distance_AN 6.5732534016;
	distance_BN 6.5732534016;
	distance_CN 6.5732534016;
}

// UGSpacing_2_AL_XLP-CONC-CIC_22KV_2P
object line_spacing {
	name UGSpacing_2_AL_XLP-CONC-CIC_22KV_2P;
	distance_AB 0.147636;
	distance_BC 0.0;
	distance_AC 0.0;
}

// OHSpacing_HORIZONTAL_3P_35
object line_spacing {
	name OHSpacing_HORIZONTAL_3P_35;
	distance_AB 2.9169658416;
	distance_BC 2.9169658416;
	distance_AC 2.9169658416;
	distance_AN 2.9169658416;
	distance_BN 2.9169658416;
	distance_CN 2.9169658416;
}

// OHSpacing_HORIZONTAL_3P_52
object line_spacing {
	name OHSpacing_HORIZONTAL_3P_52;
	distance_AB 4.3332773592;
	distance_BC 4.3332773592;
	distance_AC 4.3332773592;
	distance_AN 6.6665888808;
	distance_BN 6.6665888808;
	distance_CN 6.6665888808;
}

// UGSpacing_1/0_AL_XLP-CONC-PVC_22KV_3P
object line_spacing {
	name UGSpacing_1/0_AL_XLP-CONC-PVC_22KV_3P;
	distance_AB 0.147636;
	distance_BC 0.147636;
	distance_AC 0.295272;
}

// OHSpacing_HORIZONTAL_3P_56
object line_spacing {
	name OHSpacing_HORIZONTAL_3P_56;
	distance_AB 4.66660992;
	distance_BC 4.66660992;
	distance_AC 4.66660992;
	distance_AN 6.99991488;
	distance_BN 6.99991488;
	distance_CN 6.99991488;
}

// OHSpacing_HORIZONTAL_3P_30
object line_spacing {
	name OHSpacing_HORIZONTAL_3P_30;
	distance_AB 2.4999696;
	distance_BC 2.4999696;
	distance_AC 2.4999696;
	distance_AN 3.399958656;
	distance_BN 3.399958656;
	distance_CN 3.399958656;
}

// OHSpacing_VERTICAL_2P_24
object line_spacing {
	name OHSpacing_VERTICAL_2P_24;
	distance_AB 1.99997568;
	distance_BC 1.99997568;
	distance_AC 1.99997568;
	distance_AN 1.99997568;
	distance_BN 1.99997568;
	distance_CN 1.99997568;
}

// OHSpacing_VERTICAL_3P_24
object line_spacing {
	name OHSpacing_VERTICAL_3P_24;
	distance_AB 1.99997568;
	distance_BC 1.99997568;
	distance_AC 1.99997568;
	distance_AN 1.99997568;
	distance_BN 1.99997568;
	distance_CN 1.99997568;
}

// UGSpacing_2_AL_XLP-CONC-PVC_22KV_3P
object line_spacing {
	name UGSpacing_2_AL_XLP-CONC-PVC_22KV_3P;
	distance_AB 0.147636;
	distance_BC 0.147636;
	distance_AC 0.295272;
}

// UGSpacing_4/0_AL_XLP-CONC-PVC_22KV_2P
object line_spacing {
	name UGSpacing_4/0_AL_XLP-CONC-PVC_22KV_2P;
	distance_AB 0.147636;
	distance_BC 0.0;
	distance_AC 0.0;
}

// OHSpacing_TRIANGULAR_2P_49
object line_spacing {
	name OHSpacing_TRIANGULAR_2P_49;
	distance_AB 4.08328368;
	distance_BC 4.08328368;
	distance_AC 4.08328368;
	distance_AN 5.5532658048;
	distance_BN 5.5532658048;
	distance_CN 5.5532658048;
}

// UGSpacing_1/0_AL_EPR-CONC-ENCAP-PE_2P
object line_spacing {
	name UGSpacing_1/0_AL_EPR-CONC-ENCAP-PE_2P;
	distance_AB 0.147636;
	distance_BC 0.0;
	distance_AC 0.0;
}

// UGSpacing_600_AL_EPR-CONC-ENCAP-PE_3P
object line_spacing {
	name UGSpacing_600_AL_EPR-CONC-ENCAP-PE_3P;
	distance_AB 0.147636;
	distance_BC 0.147636;
	distance_AC 0.295272;
}

// OHSpacing_HORIZONTAL_2P_45
object line_spacing {
	name OHSpacing_HORIZONTAL_2P_45;
	distance_AB 3.7499544;
	distance_BC 3.7499544;
	distance_AC 3.7499544;
	distance_AN 4.9999392;
	distance_BN 4.9999392;
	distance_CN 4.9999392;
}

// OHSpacing_HORIZONTAL_2P_24
object line_spacing {
	name OHSpacing_HORIZONTAL_2P_24;
	distance_AB 1.99997568;
	distance_BC 1.99997568;
	distance_AC 1.99997568;
	distance_AN 2.7199669248;
	distance_BN 2.7199669248;
	distance_CN 2.7199669248;
}

// UGSpacing_1/0_AL_XLP-CON-ENCP-PE_22KV_3P
object line_spacing {
	name UGSpacing_1/0_AL_XLP-CON-ENCP-PE_22KV_3P;
	distance_AB 0.147636;
	distance_BC 0.147636;
	distance_AC 0.295272;
}

// UGSpacing_2_AL_PEC_22KV_2P
object line_spacing {
	name UGSpacing_2_AL_PEC_22KV_2P;
	distance_AB 0.147636;
	distance_BC 0.0;
	distance_AC 0.0;
}

// OHSpacing_TRIANGULAR_2P_45
object line_spacing {
	name OHSpacing_TRIANGULAR_2P_45;
	distance_AB 3.7499544;
	distance_BC 3.7499544;
	distance_AC 3.7499544;
	distance_AN 3.7499544;
	distance_BN 3.7499544;
	distance_CN 3.7499544;
}

// UGSpacing_700_AL_XLP-CONC-PVC_22KV_3P
object line_spacing {
	name UGSpacing_700_AL_XLP-CONC-PVC_22KV_3P;
	distance_AB 0.147636;
	distance_BC 0.147636;
	distance_AC 0.295272;
}

// UGSpacing_1/0_AL_XLP-CONC-CIC_22KV_3P
object line_spacing {
	name UGSpacing_1/0_AL_XLP-CONC-CIC_22KV_3P;
	distance_AB 0.147636;
	distance_BC 0.147636;
	distance_AC 0.295272;
}

// UGSpacing_2_AL_XLP-PVC_15KV_3P
object line_spacing {
	name UGSpacing_2_AL_XLP-PVC_15KV_3P;
	distance_AB 0.147636;
	distance_BC 0.147636;
	distance_AC 0.295272;
}

//*********************************************
// Line Config objects
//*********************************************
// L_100020860_LineConfig
object line_configuration {
	name L_100020860_LineConfig;
	conductor_A OHCond_4_ACSR_I;
	conductor_B OHCond_4_ACSR_I;
	conductor_C OHCond_4_ACSR_I;
	spacing OHSpacing_HORIZONTAL_3P_52;
}

// L_100120762_LineConfig
object line_configuration {
	name L_100120762_LineConfig;
	conductor_A OHCond_4_ACSR_I;
	conductor_B OHCond_4_ACSR_I;
	spacing OHSpacing_HORIZONTAL_2P_88;
}

// L_100082184_LineConfig
object line_configuration {
	name L_100082184_LineConfig;
	conductor_A OHCond_4/0_AAC_I;
	conductor_B OHCond_4/0_AAC_I;
	conductor_C OHCond_4/0_AAC_I;
	spacing OHSpacing_HORIZONTAL_3P_52;
}

// L_100051688_LineConfig
object line_configuration {
	name L_100051688_LineConfig;
	conductor_A OHCond_4_ACSR_I;
	conductor_C OHCond_4_ACSR_I;
	spacing OHSpacing_HORIZONTAL_2P_88;
}

// L_100020869_LineConfig
object line_configuration {
	name L_100020869_LineConfig;
	conductor_A OHCond_6_CU_I;
	conductor_B OHCond_6_CU_I;
	conductor_C OHCond_6_CU_I;
	spacing OHSpacing_HORIZONTAL_3P_52;
}

// L_100003052_LineConfig
object line_configuration {
	name L_100003052_LineConfig;
	conductor_A OHCond_6_CU_I;
	conductor_B OHCond_6_CU_I;
	conductor_C OHCond_6_CU_I;
	spacing OHSpacing_HORIZONTAL_3P_52;
}

// L_100068284_LineConfig
object line_configuration {
	name L_100068284_LineConfig;
	conductor_A OHCond_4_ACSR_I;
	conductor_B OHCond_4_ACSR_I;
	conductor_C OHCond_4_ACSR_I;
	spacing OHSpacing_HORIZONTAL_3P_52;
}

// L_100020879_LineConfig
object line_configuration {
	name L_100020879_LineConfig;
	conductor_A OHCond_6_CU_I;
	conductor_B OHCond_6_CU_I;
	conductor_C OHCond_6_CU_I;
	spacing OHSpacing_HORIZONTAL_3P_52;
}

// L_100107196_LineConfig
object line_configuration {
	name L_100107196_LineConfig;
	conductor_A OHCond_267_AAC_I;
	conductor_B OHCond_267_AAC_I;
	conductor_C OHCond_267_AAC_I;
	spacing OHSpacing_HORIZONTAL_3P_52;
}

// L_100014427_LineConfig
object line_configuration {
	name L_100014427_LineConfig;
	conductor_A OHCond_267_AAC_I;
	conductor_B OHCond_267_AAC_I;
	conductor_C OHCond_267_AAC_I;
	spacing OHSpacing_HORIZONTAL_3P_52;
}

// L_100085207_LineConfig
object line_configuration {
	name L_100085207_LineConfig;
	conductor_A OHCond_715_AAC_I;
	conductor_B OHCond_715_AAC_I;
	conductor_C OHCond_715_AAC_I;
	spacing OHSpacing_HORIZONTAL_3P_52;
}

// L_100003048_LineConfig
object line_configuration {
	name L_100003048_LineConfig;
	conductor_A OHCond_4_ACSR_I;
	conductor_B OHCond_4_ACSR_I;
	conductor_C OHCond_4_ACSR_I;
	spacing OHSpacing_HORIZONTAL_3P_52;
}

// L_100165605_LineConfig
object line_configuration {
	name L_100165605_LineConfig;
	conductor_A OHCond_715_AAC_I;
	conductor_B OHCond_715_AAC_I;
	conductor_C OHCond_715_AAC_I;
	spacing OHSpacing_HORIZONTAL_3P_52;
}

// L_100108673_LineConfig
object line_configuration {
	name L_100108673_LineConfig;
	conductor_A OHCond_4/0_AAC_I;
	conductor_B OHCond_4/0_AAC_I;
	conductor_C OHCond_4/0_AAC_I;
	spacing OHSpacing_HORIZONTAL_3P_52;
}

// L_100085204_LineConfig
object line_configuration {
	name L_100085204_LineConfig;
	conductor_A OHCond_715_AAC_I;
	conductor_B OHCond_715_AAC_I;
	conductor_C OHCond_715_AAC_I;
	spacing OHSpacing_HORIZONTAL_3P_52;
}

// L_100110180_LineConfig
object line_configuration {
	name L_100110180_LineConfig;
	conductor_A OHCond_4/0_AAC_I;
	conductor_B OHCond_4/0_AAC_I;
	conductor_C OHCond_4/0_AAC_I;
	spacing OHSpacing_HORIZONTAL_3P_52;
}

// L_100104218_LineConfig
object line_configuration {
	name L_100104218_LineConfig;
	conductor_A OHCond_4_ACSR_I;
	conductor_B OHCond_4_ACSR_I;
	spacing OHSpacing_HORIZONTAL_2P_56;
}

// L_100003107_LineConfig
object line_configuration {
	name L_100003107_LineConfig;
	conductor_A OHCond_6_CU_I;
	conductor_B OHCond_6_CU_I;
	conductor_C OHCond_6_CU_I;
	spacing OHSpacing_HORIZONTAL_3P_52;
}

// L_100110154_LineConfig
object line_configuration {
	name L_100110154_LineConfig;
	conductor_A OHCond_4_ACSR_I;
	conductor_B OHCond_4_ACSR_I;
	spacing OHSpacing_HORIZONTAL_2P_88;
}

// L_100014325_LineConfig
object line_configuration {
	name L_100014325_LineConfig;
	conductor_A OHCond_715_AAC_I;
	conductor_B OHCond_715_AAC_I;
	conductor_C OHCond_715_AAC_I;
	spacing OHSpacing_HORIZONTAL_3P_52;
}

// L_100102713_LineConfig
object line_configuration {
	name L_100102713_LineConfig;
	conductor_A OHCond_6_CU_I;
	conductor_B OHCond_6_CU_I;
	spacing OHSpacing_HORIZONTAL_2P_88;
}

// L_100178125_LineConfig
object line_configuration {
	name L_100178125_LineConfig;
	conductor_A OHCond_267_AAC_I;
	conductor_B OHCond_267_AAC_I;
	conductor_C OHCond_267_AAC_I;
	spacing OHSpacing_HORIZONTAL_3P_52;
}

// L_100029723_LineConfig
object line_configuration {
	name L_100029723_LineConfig;
	conductor_A OHCond_4_ACSR_I;
	conductor_B OHCond_4_ACSR_I;
	conductor_C OHCond_4_ACSR_I;
	spacing OHSpacing_TRIANGULAR_3P_30;
}

// L_100014374_LineConfig
object line_configuration {
	name L_100014374_LineConfig;
	conductor_A OHCond_4/0_AAC_I;
	conductor_B OHCond_4/0_AAC_I;
	conductor_C OHCond_4/0_AAC_I;
	spacing OHSpacing_HORIZONTAL_3P_52;
}

// L_100109786_LineConfig
object line_configuration {
	name L_100109786_LineConfig;
	conductor_A OHCond_4_ACSR_I;
	conductor_B OHCond_4_ACSR_I;
	spacing OHSpacing_HORIZONTAL_2P_88;
}

// L_100107899_LineConfig
object line_configuration {
	name L_100107899_LineConfig;
	conductor_B OHCond_6_CU_I;
	conductor_C OHCond_6_CU_I;
	spacing OHSpacing_HORIZONTAL_2P_88;
}

// L_100004565_LineConfig
object line_configuration {
	name L_100004565_LineConfig;
	conductor_A OHCond_4/0_AAC_I;
	conductor_B OHCond_4/0_AAC_I;
	conductor_C OHCond_4/0_AAC_I;
	spacing OHSpacing_HORIZONTAL_3P_24;
}

// L_100104211_LineConfig
object line_configuration {
	name L_100104211_LineConfig;
	conductor_A OHCond_6_CU_I;
	conductor_B OHCond_6_CU_I;
	spacing OHSpacing_HORIZONTAL_2P_56;
}

// L_100109790_LineConfig
object line_configuration {
	name L_100109790_LineConfig;
	conductor_A OHCond_715_AAC_I;
	conductor_B OHCond_715_AAC_I;
	conductor_C OHCond_715_AAC_I;
	spacing OHSpacing_HORIZONTAL_3P_52;
}

// L_100104508_LineConfig
object line_configuration {
	name L_100104508_LineConfig;
	conductor_A OHCond_4/0_AAC_I;
	conductor_B OHCond_4/0_AAC_I;
	conductor_C OHCond_4/0_AAC_I;
	spacing OHSpacing_HORIZONTAL_3P_52;
}

// L_100088823_LineConfig
object line_configuration {
	name L_100088823_LineConfig;
	conductor_A OHCond_4_ACSR_I;
	conductor_B OHCond_4_ACSR_I;
	conductor_C OHCond_4_ACSR_I;
	spacing OHSpacing_HORIZONTAL_3P_52;
}

// L_100109248_LineConfig
object line_configuration {
	name L_100109248_LineConfig;
	conductor_A OHCond_4_ACSR_I;
	conductor_B OHCond_4_ACSR_I;
	spacing OHSpacing_TRIANGULAR_2P_39;
}

// L_100109787_LineConfig
object line_configuration {
	name L_100109787_LineConfig;
	conductor_A OHCond_4_ACSR_I;
	conductor_B OHCond_4_ACSR_I;
	spacing OHSpacing_HORIZONTAL_2P_88;
}

// L_100109727_LineConfig
object line_configuration {
	name L_100109727_LineConfig;
	conductor_A OHCond_4_ACSR_I;
	conductor_C OHCond_4_ACSR_I;
	spacing OHSpacing_HORIZONTAL_2P_88;
}

// L_100092709_LineConfig
object line_configuration {
	name L_100092709_LineConfig;
	conductor_A OHCond_397_AAC_I;
	conductor_B OHCond_397_AAC_I;
	conductor_C OHCond_397_AAC_I;
	spacing OHSpacing_HORIZONTAL_3P_52;
}

// L_100183342_LineConfig
object line_configuration {
	name L_100183342_LineConfig;
	conductor_A OHCond_6_CU_I;
	conductor_B OHCond_6_CU_I;
	conductor_C OHCond_6_CU_I;
	spacing OHSpacing_HORIZONTAL_3P_52;
}

// L_100050382_LineConfig
object line_configuration {
	name L_100050382_LineConfig;
	conductor_A OHCond_4_ACSR_I;
	conductor_B OHCond_4_ACSR_I;
	conductor_C OHCond_4_ACSR_I;
	spacing OHSpacing_TRIANGULAR_3P_30;
}

// L_100002986_LineConfig
object line_configuration {
	name L_100002986_LineConfig;
	conductor_A OHCond_6_CU_I;
	conductor_B OHCond_6_CU_I;
	conductor_C OHCond_6_CU_I;
	spacing OHSpacing_HORIZONTAL_3P_52;
}

// L_100082185_LineConfig
object line_configuration {
	name L_100082185_LineConfig;
	conductor_A OHCond_4/0_AAC_I;
	conductor_B OHCond_4/0_AAC_I;
	conductor_C OHCond_4/0_AAC_I;
	spacing OHSpacing_HORIZONTAL_3P_52;
}

// L_100003009_LineConfig
object line_configuration {
	name L_100003009_LineConfig;
	conductor_A OHCond_4_ACSR_I;
	conductor_B OHCond_4_ACSR_I;
	spacing OHSpacing_HORIZONTAL_2P_88;
}

// L_100003123_LineConfig
object line_configuration {
	name L_100003123_LineConfig;
	conductor_A OHCond_6_CU_I;
	conductor_B OHCond_6_CU_I;
	spacing OHSpacing_HORIZONTAL_2P_88;
}

// L_100109278_LineConfig
object line_configuration {
	name L_100109278_LineConfig;
	conductor_A OHCond_4_ACSR_I;
	conductor_B OHCond_4_ACSR_I;
	conductor_C OHCond_4_ACSR_I;
	spacing OHSpacing_HORIZONTAL_3P_52;
}

// L_100014321_LineConfig
object line_configuration {
	name L_100014321_LineConfig;
	conductor_A OHCond_715_AAC_I;
	conductor_B OHCond_715_AAC_I;
	conductor_C OHCond_715_AAC_I;
	spacing OHSpacing_HORIZONTAL_3P_52;
}

// L_100014480_LineConfig
object line_configuration {
	name L_100014480_LineConfig;
	conductor_A OHCond_4_ACSR_I;
	conductor_B OHCond_4_ACSR_I;
	conductor_C OHCond_4_ACSR_I;
	spacing OHSpacing_HORIZONTAL_3P_52;
}

// L_100109304_LineConfig
object line_configuration {
	name L_100109304_LineConfig;
	conductor_A OHCond_715_AAC_I;
	conductor_B OHCond_715_AAC_I;
	conductor_C OHCond_715_AAC_I;
	spacing OHSpacing_HORIZONTAL_3P_52;
}

// L_100014320_LineConfig
object line_configuration {
	name L_100014320_LineConfig;
	conductor_A OHCond_715_AAC_I;
	conductor_B OHCond_715_AAC_I;
	conductor_C OHCond_715_AAC_I;
	spacing OHSpacing_HORIZONTAL_3P_52;
}

// L_100109254_LineConfig
object line_configuration {
	name L_100109254_LineConfig;
	conductor_A OHCond_6_CU_I;
	conductor_B OHCond_6_CU_I;
	conductor_C OHCond_6_CU_I;
	spacing OHSpacing_HORIZONTAL_3P_72;
}

// L_100059217_LineConfig
object line_configuration {
	name L_100059217_LineConfig;
	conductor_A OHCond_6_CU_I;
	conductor_B OHCond_6_CU_I;
	conductor_C OHCond_6_CU_I;
	spacing OHSpacing_HORIZONTAL_3P_52;
}

// L_100107895_LineConfig
object line_configuration {
	name L_100107895_LineConfig;
	conductor_B OHCond_6_CU_I;
	conductor_C OHCond_6_CU_I;
	spacing OHSpacing_HORIZONTAL_2P_88;
}

// L_100003120_LineConfig
object line_configuration {
	name L_100003120_LineConfig;
	conductor_A OHCond_4/0_AAC_I;
	conductor_B OHCond_4/0_AAC_I;
	conductor_C OHCond_4/0_AAC_I;
	spacing OHSpacing_HORIZONTAL_3P_52;
}

// L_100085206_LineConfig
object line_configuration {
	name L_100085206_LineConfig;
	conductor_A OHCond_715_AAC_I;
	conductor_B OHCond_715_AAC_I;
	conductor_C OHCond_715_AAC_I;
	spacing OHSpacing_HORIZONTAL_3P_52;
}

// L_100030734_LineConfig
object line_configuration {
	name L_100030734_LineConfig;
	conductor_A OHCond_4_ACSR_I;
	conductor_B OHCond_4_ACSR_I;
	spacing OHSpacing_HORIZONTAL_2P_88;
}

// L_100110244_LineConfig
object line_configuration {
	name L_100110244_LineConfig;
	conductor_A OHCond_4/0_AAC_I;
	conductor_B OHCond_4/0_AAC_I;
	conductor_C OHCond_4/0_AAC_I;
	spacing OHSpacing_HORIZONTAL_3P_52;
}

// L_100020868_LineConfig
object line_configuration {
	name L_100020868_LineConfig;
	conductor_A OHCond_6_CU_I;
	conductor_B OHCond_6_CU_I;
	conductor_C OHCond_6_CU_I;
	spacing OHSpacing_HORIZONTAL_3P_52;
}

// L_100020875_LineConfig
object line_configuration {
	name L_100020875_LineConfig;
	conductor_A OHCond_4_ACSR_I;
	conductor_B OHCond_4_ACSR_I;
	conductor_C OHCond_4_ACSR_I;
	spacing OHSpacing_HORIZONTAL_3P_52;
}

// L_100002998_LineConfig
object line_configuration {
	name L_100002998_LineConfig;
	conductor_A OHCond_1/0_AAC_I;
	conductor_B OHCond_1/0_AAC_I;
	conductor_C OHCond_1/0_AAC_I;
	spacing OHSpacing_HORIZONTAL_3P_52;
}

// L_100109280_LineConfig
object line_configuration {
	name L_100109280_LineConfig;
	conductor_A OHCond_6_CU_I;
	conductor_B OHCond_6_CU_I;
	spacing OHSpacing_HORIZONTAL_2P_56;
}

// L_100082605_LineConfig
object line_configuration {
	name L_100082605_LineConfig;
	conductor_A OHCond_4_ACSR_I;
	conductor_B OHCond_4_ACSR_I;
	spacing OHSpacing_HORIZONTAL_2P_88;
}

// L_100003043_LineConfig
object line_configuration {
	name L_100003043_LineConfig;
	conductor_A OHCond_6_CU_I;
	conductor_B OHCond_6_CU_I;
	conductor_C OHCond_6_CU_I;
	spacing OHSpacing_HORIZONTAL_3P_52;
}

// L_100003222_LineConfig
object line_configuration {
	name L_100003222_LineConfig;
	conductor_A OHCond_4_ACSR_I;
	conductor_B OHCond_4_ACSR_I;
	spacing OHSpacing_HORIZONTAL_2P_56;
}

// L_100082183_LineConfig
object line_configuration {
	name L_100082183_LineConfig;
	conductor_A OHCond_4/0_AAC_I;
	conductor_B OHCond_4/0_AAC_I;
	conductor_C OHCond_4/0_AAC_I;
	spacing OHSpacing_HORIZONTAL_3P_52;
}

// L_100102709_LineConfig
object line_configuration {
	name L_100102709_LineConfig;
	conductor_A OHCond_6_CU_I;
	conductor_B OHCond_6_CU_I;
	spacing OHSpacing_HORIZONTAL_2P_88;
}

// L_100014339_LineConfig
object line_configuration {
	name L_100014339_LineConfig;
	conductor_A OHCond_4_ACSR_I;
	conductor_B OHCond_4_ACSR_I;
	conductor_C OHCond_4_ACSR_I;
	spacing OHSpacing_HORIZONTAL_3P_52;
}

// L_100109239_LineConfig
object line_configuration {
	name L_100109239_LineConfig;
	conductor_A OHCond_6_CU_I;
	conductor_B OHCond_6_CU_I;
	conductor_C OHCond_6_CU_I;
	spacing OHSpacing_HORIZONTAL_3P_52;
}

// L_100014482_LineConfig
object line_configuration {
	name L_100014482_LineConfig;
	conductor_A OHCond_397_AAC_I;
	conductor_B OHCond_397_AAC_I;
	conductor_C OHCond_397_AAC_I;
	spacing OHSpacing_HORIZONTAL_3P_52;
}

// L_100184797_LineConfig
object line_configuration {
	name L_100184797_LineConfig;
	conductor_A OHCond_4/0_AAC_I;
	conductor_B OHCond_4/0_AAC_I;
	conductor_C OHCond_4/0_AAC_I;
	spacing OHSpacing_HORIZONTAL_3P_52;
}

// L_100109562_LineConfig
object line_configuration {
	name L_100109562_LineConfig;
	conductor_A OHCond_6_CU_I;
	conductor_B OHCond_6_CU_I;
	spacing OHSpacing_HORIZONTAL_2P_88;
}

// L_100020118_LineConfig
object line_configuration {
	name L_100020118_LineConfig;
	conductor_A OHCond_4_ACSR_I;
	conductor_B OHCond_4_ACSR_I;
	spacing OHSpacing_HORIZONTAL_2P_52;
}

// L_100104214_LineConfig
object line_configuration {
	name L_100104214_LineConfig;
	conductor_A OHCond_4_ACSR_I;
	conductor_B OHCond_4_ACSR_I;
	spacing OHSpacing_HORIZONTAL_2P_56;
}

// L_100031010_LineConfig
object line_configuration {
	name L_100031010_LineConfig;
	conductor_A OHCond_4_ACSR_I;
	conductor_B OHCond_4_ACSR_I;
	spacing OHSpacing_HORIZONTAL_2P_88;
}

// L_100109328_LineConfig
object line_configuration {
	name L_100109328_LineConfig;
	conductor_A OHCond_4/0_AAC_I;
	conductor_B OHCond_4/0_AAC_I;
	conductor_C OHCond_4/0_AAC_I;
	spacing OHSpacing_HORIZONTAL_3P_52;
}

// L_100014444_LineConfig
object line_configuration {
	name L_100014444_LineConfig;
	conductor_A OHCond_267_AAC_I;
	conductor_B OHCond_267_AAC_I;
	conductor_C OHCond_267_AAC_I;
	spacing OHSpacing_HORIZONTAL_3P_52;
}

// L_100021194_LineConfig
object line_configuration {
	name L_100021194_LineConfig;
	conductor_A OHCond_4_ACSR_I;
	conductor_B OHCond_4_ACSR_I;
	spacing OHSpacing_HORIZONTAL_2P_88;
}

// L_100109264_LineConfig
object line_configuration {
	name L_100109264_LineConfig;
	conductor_A OHCond_2_CU_I;
	conductor_B OHCond_2_CU_I;
	conductor_C OHCond_2_CU_I;
	spacing OHSpacing_HORIZONTAL_3P_52;
}

// L_100094703_LineConfig
object line_configuration {
	name L_100094703_LineConfig;
	conductor_A OHCond_4_ACSR_I;
	conductor_B OHCond_4_ACSR_I;
	conductor_C OHCond_4_ACSR_I;
	spacing OHSpacing_VERTICAL_3P_24;
}

// L_100004573_LineConfig
object line_configuration {
	name L_100004573_LineConfig;
	conductor_A OHCond_4/0_AAC_I;
	conductor_B OHCond_4/0_AAC_I;
	conductor_C OHCond_4/0_AAC_I;
	spacing OHSpacing_HORIZONTAL_3P_24;
}

// L_100049106_LineConfig
object line_configuration {
	name L_100049106_LineConfig;
	conductor_A OHCond_4/0_AAC_I;
	conductor_B OHCond_4/0_AAC_I;
	conductor_C OHCond_4/0_AAC_I;
	spacing OHSpacing_HORIZONTAL_3P_24;
}

// L_100103964_LineConfig
object line_configuration {
	name L_100103964_LineConfig;
	conductor_A OHCond_4_ACSR_I;
	conductor_C OHCond_4_ACSR_I;
	spacing OHSpacing_HORIZONTAL_2P_45;
}

// L_100075567_LineConfig
object line_configuration {
	name L_100075567_LineConfig;
	conductor_A OHCond_715_AAC_I;
	conductor_B OHCond_715_AAC_I;
	conductor_C OHCond_715_AAC_I;
	spacing OHSpacing_HORIZONTAL_3P_52;
}

// L_100023323_LineConfig
object line_configuration {
	name L_100023323_LineConfig;
	conductor_A OHCond_4_ACSR_I;
	conductor_B OHCond_4_ACSR_I;
	spacing OHSpacing_HORIZONTAL_2P_88;
}

// L_100020872_LineConfig
object line_configuration {
	name L_100020872_LineConfig;
	conductor_A OHCond_4_ACSR_I;
	conductor_B OHCond_4_ACSR_I;
	spacing OHSpacing_HORIZONTAL_2P_56;
}

// L_100109334_LineConfig
object line_configuration {
	name L_100109334_LineConfig;
	conductor_A OHCond_4_ACSR_I;
	conductor_B OHCond_4_ACSR_I;
	conductor_C OHCond_4_ACSR_I;
	spacing OHSpacing_HORIZONTAL_3P_52;
}

// L_100003241_LineConfig
object line_configuration {
	name L_100003241_LineConfig;
	conductor_A OHCond_4/0_AAC_I;
	conductor_B OHCond_4/0_AAC_I;
	conductor_C OHCond_4/0_AAC_I;
	spacing OHSpacing_HORIZONTAL_3P_52;
}

// L_100020161_LineConfig
object line_configuration {
	name L_100020161_LineConfig;
	conductor_A OHCond_4_ACSR_I;
	conductor_B OHCond_4_ACSR_I;
	spacing OHSpacing_HORIZONTAL_2P_52;
}

// L_100167423_LineConfig
object line_configuration {
	name L_100167423_LineConfig;
	conductor_A OHCond_6_CU_I;
	conductor_B OHCond_6_CU_I;
	conductor_C OHCond_6_CU_I;
	spacing OHSpacing_HORIZONTAL_3P_52;
}

// L_100014481_LineConfig
object line_configuration {
	name L_100014481_LineConfig;
	conductor_A OHCond_715_AAC_I;
	conductor_B OHCond_715_AAC_I;
	conductor_C OHCond_715_AAC_I;
	spacing OHSpacing_HORIZONTAL_3P_52;
}

// L_100023345_LineConfig
object line_configuration {
	name L_100023345_LineConfig;
	conductor_A OHCond_4_ACSR_I;
	conductor_B OHCond_4_ACSR_I;
	spacing OHSpacing_HORIZONTAL_2P_88;
}

// L_100021240_LineConfig
object line_configuration {
	name L_100021240_LineConfig;
	conductor_A OHCond_6_CU_I;
	conductor_B OHCond_6_CU_I;
	conductor_C OHCond_6_CU_I;
	spacing OHSpacing_HORIZONTAL_3P_52;
}

// L_100032035_LineConfig
object line_configuration {
	name L_100032035_LineConfig;
	conductor_A OHCond_4_ACSR_I;
	conductor_B OHCond_4_ACSR_I;
	conductor_C OHCond_4_ACSR_I;
	spacing OHSpacing_TRIANGULAR_3P_35;
}

// L_100104688_LineConfig
object line_configuration {
	name L_100104688_LineConfig;
	conductor_A OHCond_4/0_AAC_I;
	conductor_B OHCond_4/0_AAC_I;
	conductor_C OHCond_4/0_AAC_I;
	spacing OHSpacing_HORIZONTAL_3P_52;
}

// L_100002996_LineConfig
object line_configuration {
	name L_100002996_LineConfig;
	conductor_A OHCond_715_AAC_I;
	conductor_B OHCond_715_AAC_I;
	conductor_C OHCond_715_AAC_I;
	spacing OHSpacing_HORIZONTAL_3P_52;
}

// L_100109559_LineConfig
object line_configuration {
	name L_100109559_LineConfig;
	conductor_A OHCond_6_CU_I;
	conductor_B OHCond_6_CU_I;
	spacing OHSpacing_HORIZONTAL_2P_88;
}

// L_100133656_LineConfig
object line_configuration {
	name L_100133656_LineConfig;
	conductor_A OHCond_4_ACSR_I;
	conductor_B OHCond_4_ACSR_I;
	conductor_C OHCond_4_ACSR_I;
	spacing OHSpacing_HORIZONTAL_3P_52;
}

// L_100076895_LineConfig
object line_configuration {
	name L_100076895_LineConfig;
	conductor_A OHCond_4_ACSR_I;
	conductor_B OHCond_4_ACSR_I;
	conductor_C OHCond_4_ACSR_I;
	spacing OHSpacing_TRIANGULAR_3P_30;
}

// L_100030111_LineConfig
object line_configuration {
	name L_100030111_LineConfig;
	conductor_A OHCond_4/0_AAC_I;
	conductor_B OHCond_4/0_AAC_I;
	conductor_C OHCond_4/0_AAC_I;
	spacing OHSpacing_HORIZONTAL_3P_24;
}

// L_100030796_LineConfig
object line_configuration {
	name L_100030796_LineConfig;
	conductor_A OHCond_4/0_AAC_I;
	conductor_B OHCond_4/0_AAC_I;
	conductor_C OHCond_4/0_AAC_I;
	spacing OHSpacing_HORIZONTAL_3P_52;
}

// L_100014338_LineConfig
object line_configuration {
	name L_100014338_LineConfig;
	conductor_A OHCond_4_ACSR_I;
	conductor_B OHCond_4_ACSR_I;
	conductor_C OHCond_4_ACSR_I;
	spacing OHSpacing_HORIZONTAL_3P_52;
}

// L_100004568_LineConfig
object line_configuration {
	name L_100004568_LineConfig;
	conductor_A OHCond_4/0_AAC_I;
	conductor_B OHCond_4/0_AAC_I;
	conductor_C OHCond_4/0_AAC_I;
	spacing OHSpacing_HORIZONTAL_3P_24;
}

// L_100109273_LineConfig
object line_configuration {
	name L_100109273_LineConfig;
	conductor_A OHCond_4_ACSR_I;
	conductor_B OHCond_4_ACSR_I;
	spacing OHSpacing_HORIZONTAL_2P_88;
}

// L_100003004_LineConfig
object line_configuration {
	name L_100003004_LineConfig;
	conductor_A OHCond_4/0_AAC_I;
	conductor_B OHCond_4/0_AAC_I;
	conductor_C OHCond_4/0_AAC_I;
	spacing OHSpacing_TRIANGULAR_3P_58;
}

// L_100027236_LineConfig
object line_configuration {
	name L_100027236_LineConfig;
	conductor_A OHCond_6_CU_I;
	conductor_B OHCond_6_CU_I;
	conductor_C OHCond_6_CU_I;
	spacing OHSpacing_HORIZONTAL_3P_52;
}

// L_100032747_LineConfig
object line_configuration {
	name L_100032747_LineConfig;
	conductor_A OHCond_397_AAC_I;
	conductor_B OHCond_397_AAC_I;
	conductor_C OHCond_397_AAC_I;
	spacing OHSpacing_TRIANGULAR_3P_35;
}

// L_100023354_LineConfig
object line_configuration {
	name L_100023354_LineConfig;
	conductor_A OHCond_4_ACSR_I;
	conductor_B OHCond_4_ACSR_I;
	spacing OHSpacing_HORIZONTAL_2P_88;
}

// L_100094702_LineConfig
object line_configuration {
	name L_100094702_LineConfig;
	conductor_A OHCond_4_ACSR_I;
	conductor_B OHCond_4_ACSR_I;
	conductor_C OHCond_4_ACSR_I;
	spacing OHSpacing_VERTICAL_3P_24;
}

// L_100109306_LineConfig
object line_configuration {
	name L_100109306_LineConfig;
	conductor_A OHCond_715_AAC_I;
	conductor_B OHCond_715_AAC_I;
	conductor_C OHCond_715_AAC_I;
	spacing OHSpacing_HORIZONTAL_3P_52;
}

// L_100107900_LineConfig
object line_configuration {
	name L_100107900_LineConfig;
	conductor_B OHCond_6_CU_I;
	conductor_C OHCond_6_CU_I;
	spacing OHSpacing_HORIZONTAL_2P_88;
}

// L_100020793_LineConfig
object line_configuration {
	name L_100020793_LineConfig;
	conductor_A OHCond_4_ACSR_I;
	conductor_B OHCond_4_ACSR_I;
	conductor_C OHCond_4_ACSR_I;
	spacing OHSpacing_HORIZONTAL_3P_52;
}

// L_100023342_LineConfig
object line_configuration {
	name L_100023342_LineConfig;
	conductor_A OHCond_6_CU_I;
	conductor_B OHCond_6_CU_I;
	spacing OHSpacing_HORIZONTAL_2P_88;
}

// L_100014476_LineConfig
object line_configuration {
	name L_100014476_LineConfig;
	conductor_A OHCond_4/0_AAC_I;
	conductor_B OHCond_4/0_AAC_I;
	conductor_C OHCond_4/0_AAC_I;
	spacing OHSpacing_HORIZONTAL_3P_52;
}

// L_100109606_LineConfig
object line_configuration {
	name L_100109606_LineConfig;
	conductor_A OHCond_4_ACSR_I;
	conductor_B OHCond_4_ACSR_I;
	conductor_C OHCond_4_ACSR_I;
	spacing OHSpacing_HORIZONTAL_3P_52;
}

// L_100109565_LineConfig
object line_configuration {
	name L_100109565_LineConfig;
	conductor_A OHCond_4_ACSR_I;
	conductor_B OHCond_4_ACSR_I;
	spacing OHSpacing_HORIZONTAL_2P_88;
}

// L_100109540_LineConfig
object line_configuration {
	name L_100109540_LineConfig;
	conductor_A OHCond_4_ACSR_I;
	conductor_B OHCond_4_ACSR_I;
	spacing OHSpacing_HORIZONTAL_2P_88;
}

// L_100003066_LineConfig
object line_configuration {
	name L_100003066_LineConfig;
	conductor_A OHCond_4_ACSR_I;
	conductor_B OHCond_4_ACSR_I;
	conductor_C OHCond_4_ACSR_I;
	spacing OHSpacing_HORIZONTAL_3P_52;
}

// L_100027484_LineConfig
object line_configuration {
	name L_100027484_LineConfig;
	conductor_A OHCond_4_ACSR_I;
	conductor_B OHCond_4_ACSR_I;
	conductor_C OHCond_4_ACSR_I;
	spacing OHSpacing_TRIANGULAR_3P_30;
}

// L_100184772_LineConfig
object line_configuration {
	name L_100184772_LineConfig;
	conductor_A OHCond_4/0_AAC_I;
	conductor_B OHCond_4/0_AAC_I;
	conductor_C OHCond_4/0_AAC_I;
	spacing OHSpacing_HORIZONTAL_3P_52;
}

// L_100109547_LineConfig
object line_configuration {
	name L_100109547_LineConfig;
	conductor_A OHCond_4_ACSR_I;
	conductor_B OHCond_4_ACSR_I;
	conductor_C OHCond_4_ACSR_I;
	spacing OHSpacing_HORIZONTAL_3P_52;
}

// L_100109884_LineConfig
object line_configuration {
	name L_100109884_LineConfig;
	conductor_A OHCond_4/0_AAC_I;
	conductor_B OHCond_4/0_AAC_I;
	conductor_C OHCond_4/0_AAC_I;
	spacing OHSpacing_HORIZONTAL_3P_52;
}

// L_100109561_LineConfig
object line_configuration {
	name L_100109561_LineConfig;
	conductor_A OHCond_6_CU_I;
	conductor_B OHCond_6_CU_I;
	conductor_C OHCond_6_CU_I;
	spacing OHSpacing_HORIZONTAL_3P_52;
}

// L_100110116_LineConfig
object line_configuration {
	name L_100110116_LineConfig;
	conductor_A OHCond_4/0_AAC_I;
	conductor_B OHCond_4/0_AAC_I;
	conductor_C OHCond_4/0_AAC_I;
	spacing OHSpacing_HORIZONTAL_3P_52;
}

// L_100023322_LineConfig
object line_configuration {
	name L_100023322_LineConfig;
	conductor_A OHCond_4_ACSR_I;
	conductor_B OHCond_4_ACSR_I;
	spacing OHSpacing_HORIZONTAL_2P_88;
}

// L_100022908_LineConfig
object line_configuration {
	name L_100022908_LineConfig;
	conductor_A OHCond_4_ACSR_I;
	conductor_B OHCond_4_ACSR_I;
	spacing OHSpacing_HORIZONTAL_2P_88;
}

// L_100021195_LineConfig
object line_configuration {
	name L_100021195_LineConfig;
	conductor_A OHCond_6_CU_I;
	conductor_B OHCond_6_CU_I;
	conductor_C OHCond_6_CU_I;
	spacing OHSpacing_HORIZONTAL_3P_52;
}

// L_100020791_LineConfig
object line_configuration {
	name L_100020791_LineConfig;
	conductor_A OHCond_1/0_AAC_I;
	conductor_B OHCond_1/0_AAC_I;
	conductor_C OHCond_1/0_AAC_I;
	spacing OHSpacing_HORIZONTAL_3P_52;
}

// L_100020796_LineConfig
object line_configuration {
	name L_100020796_LineConfig;
	conductor_A OHCond_4_ACSR_I;
	conductor_B OHCond_4_ACSR_I;
	conductor_C OHCond_4_ACSR_I;
	spacing OHSpacing_HORIZONTAL_3P_52;
}

// L_100023359_LineConfig
object line_configuration {
	name L_100023359_LineConfig;
	conductor_A OHCond_4_ACSR_I;
	conductor_B OHCond_4_ACSR_I;
	conductor_C OHCond_4_ACSR_I;
	spacing OHSpacing_HORIZONTAL_3P_52;
}

// L_100079166_LineConfig
object line_configuration {
	name L_100079166_LineConfig;
	conductor_A OHCond_6_CU_I;
	conductor_B OHCond_6_CU_I;
	conductor_C OHCond_6_CU_I;
	spacing OHSpacing_HORIZONTAL_3P_52;
}

// L_100032793_LineConfig
object line_configuration {
	name L_100032793_LineConfig;
	conductor_A OHCond_4_ACSR_I;
	conductor_B OHCond_4_ACSR_I;
	spacing OHSpacing_HORIZONTAL_2P_88;
}

// L_100104676_LineConfig
object line_configuration {
	name L_100104676_LineConfig;
	conductor_A OHCond_4/0_AAC_I;
	conductor_B OHCond_4/0_AAC_I;
	conductor_C OHCond_4/0_AAC_I;
	spacing OHSpacing_TRIANGULAR_3P_35;
}

// L_100021236_LineConfig
object line_configuration {
	name L_100021236_LineConfig;
	conductor_A OHCond_4_ACSR_I;
	conductor_B OHCond_4_ACSR_I;
	spacing OHSpacing_HORIZONTAL_2P_56;
}

// L_100068674_LineConfig
object line_configuration {
	name L_100068674_LineConfig;
	conductor_A OHCond_4_ACSR_I;
	conductor_B OHCond_4_ACSR_I;
	conductor_C OHCond_4_ACSR_I;
	spacing OHSpacing_HORIZONTAL_3P_52;
}

// L_100053774_LineConfig
object line_configuration {
	name L_100053774_LineConfig;
	conductor_A OHCond_6_CU_I;
	conductor_B OHCond_6_CU_I;
	spacing OHSpacing_HORIZONTAL_2P_88;
}

// L_100021239_LineConfig
object line_configuration {
	name L_100021239_LineConfig;
	conductor_A OHCond_6_CU_I;
	conductor_B OHCond_6_CU_I;
	conductor_C OHCond_6_CU_I;
	spacing OHSpacing_HORIZONTAL_3P_52;
}

// L_100109320_LineConfig
object line_configuration {
	name L_100109320_LineConfig;
	conductor_A OHCond_6_CU_I;
	conductor_B OHCond_6_CU_I;
	conductor_C OHCond_6_CU_I;
	spacing OHSpacing_HORIZONTAL_3P_52;
}

// L_100123996_LineConfig
object line_configuration {
	name L_100123996_LineConfig;
	conductor_A OHCond_4_ACSR_I;
	conductor_B OHCond_4_ACSR_I;
	conductor_C OHCond_4_ACSR_I;
	spacing OHSpacing_HORIZONTAL_3P_88;
}

// L_100109245_LineConfig
object line_configuration {
	name L_100109245_LineConfig;
	conductor_A OHCond_6_CU_I;
	conductor_B OHCond_6_CU_I;
	conductor_C OHCond_6_CU_I;
	spacing OHSpacing_HORIZONTAL_3P_52;
}

// L_100056837_LineConfig
object line_configuration {
	name L_100056837_LineConfig;
	conductor_A OHCond_715_AAC_I;
	conductor_B OHCond_715_AAC_I;
	conductor_C OHCond_715_AAC_I;
	spacing OHSpacing_HORIZONTAL_3P_52;
}

// L_100175213_LineConfig
object line_configuration {
	name L_100175213_LineConfig;
	conductor_A OHCond_2_CU_I;
	conductor_B OHCond_2_CU_I;
	conductor_C OHCond_2_CU_I;
	spacing OHSpacing_HORIZONTAL_3P_52;
}

// L_100003006_LineConfig
object line_configuration {
	name L_100003006_LineConfig;
	conductor_A OHCond_6_CU_I;
	conductor_B OHCond_6_CU_I;
	conductor_C OHCond_6_CU_I;
	spacing OHSpacing_HORIZONTAL_3P_52;
}

// L_100003116_LineConfig
object line_configuration {
	name L_100003116_LineConfig;
	conductor_A OHCond_6_CU_I;
	conductor_B OHCond_6_CU_I;
	conductor_C OHCond_6_CU_I;
	spacing OHSpacing_HORIZONTAL_3P_52;
}

// L_100109550_LineConfig
object line_configuration {
	name L_100109550_LineConfig;
	conductor_A OHCond_4_ACSR_I;
	conductor_B OHCond_4_ACSR_I;
	spacing OHSpacing_HORIZONTAL_2P_56;
}

// L_100109286_LineConfig
object line_configuration {
	name L_100109286_LineConfig;
	conductor_A OHCond_397_AAC_I;
	conductor_B OHCond_397_AAC_I;
	conductor_C OHCond_397_AAC_I;
	spacing OHSpacing_TRIANGULAR_3P_35;
}

// L_100020095_LineConfig
object line_configuration {
	name L_100020095_LineConfig;
	conductor_A OHCond_6_CU_I;
	conductor_B OHCond_6_CU_I;
	spacing OHSpacing_HORIZONTAL_2P_88;
}

// L_100109551_LineConfig
object line_configuration {
	name L_100109551_LineConfig;
	conductor_A OHCond_4_ACSR_I;
	conductor_B OHCond_4_ACSR_I;
	spacing OHSpacing_HORIZONTAL_2P_56;
}

// L_100109541_LineConfig
object line_configuration {
	name L_100109541_LineConfig;
	conductor_A OHCond_4_ACSR_I;
	conductor_B OHCond_4_ACSR_I;
	conductor_C OHCond_4_ACSR_I;
	spacing OHSpacing_HORIZONTAL_3P_88;
}

// L_100014326_LineConfig
object line_configuration {
	name L_100014326_LineConfig;
	conductor_A OHCond_715_AAC_I;
	conductor_B OHCond_715_AAC_I;
	conductor_C OHCond_715_AAC_I;
	spacing OHSpacing_HORIZONTAL_3P_52;
}

// L_100109271_LineConfig
object line_configuration {
	name L_100109271_LineConfig;
	conductor_A OHCond_4_ACSR_I;
	conductor_B OHCond_4_ACSR_I;
	spacing OHSpacing_HORIZONTAL_2P_88;
}

// L_100104220_LineConfig
object line_configuration {
	name L_100104220_LineConfig;
	conductor_A OHCond_4_ACSR_I;
	conductor_B OHCond_4_ACSR_I;
	spacing OHSpacing_HORIZONTAL_2P_56;
}

// L_100109251_LineConfig
object line_configuration {
	name L_100109251_LineConfig;
	conductor_A OHCond_6_CU_I;
	conductor_B OHCond_6_CU_I;
	conductor_C OHCond_6_CU_I;
	spacing OHSpacing_HORIZONTAL_3P_52;
}

// L_100109419_LineConfig
object line_configuration {
	name L_100109419_LineConfig;
	conductor_A OHCond_4_ACSR_I;
	conductor_B OHCond_4_ACSR_I;
	conductor_C OHCond_4_ACSR_I;
	spacing OHSpacing_TRIANGULAR_3P_35;
}

// L_100021676_LineConfig
object line_configuration {
	name L_100021676_LineConfig;
	conductor_A OHCond_4/0_ACSR_I;
	conductor_B OHCond_4/0_ACSR_I;
	spacing OHSpacing_HORIZONTAL_2P_88;
}

// L_100022567_LineConfig
object line_configuration {
	name L_100022567_LineConfig;
	conductor_A OHCond_4/0_AAC_I;
	conductor_B OHCond_4/0_AAC_I;
	conductor_C OHCond_4/0_AAC_I;
	spacing OHSpacing_HORIZONTAL_3P_52;
}

// L_100030159_LineConfig
object line_configuration {
	name L_100030159_LineConfig;
	conductor_A OHCond_715_AAC_I;
	conductor_B OHCond_715_AAC_I;
	conductor_C OHCond_715_AAC_I;
	spacing OHSpacing_HORIZONTAL_3P_52;
}

// L_100023328_LineConfig
object line_configuration {
	name L_100023328_LineConfig;
	conductor_A OHCond_6_CU_I;
	conductor_B OHCond_6_CU_I;
	spacing OHSpacing_HORIZONTAL_2P_88;
}

// L_100051687_LineConfig
object line_configuration {
	name L_100051687_LineConfig;
	conductor_A OHCond_4_ACSR_I;
	conductor_C OHCond_4_ACSR_I;
	spacing OHSpacing_HORIZONTAL_2P_88;
}

// L_100004694_LineConfig
object line_configuration {
	name L_100004694_LineConfig;
	conductor_B OHCond_6_CU_I;
	conductor_C OHCond_6_CU_I;
	spacing OHSpacing_HORIZONTAL_2P_88;
}

// L_100184305_LineConfig
object line_configuration {
	name L_100184305_LineConfig;
	conductor_A OHCond_4/0_AAC_I;
	conductor_B OHCond_4/0_AAC_I;
	conductor_C OHCond_4/0_AAC_I;
	spacing OHSpacing_HORIZONTAL_3P_52;
}

// L_100020798_LineConfig
object line_configuration {
	name L_100020798_LineConfig;
	conductor_A OHCond_1/0_AAC_I;
	conductor_B OHCond_1/0_AAC_I;
	conductor_C OHCond_1/0_AAC_I;
	spacing OHSpacing_HORIZONTAL_3P_52;
}

// L_100109326_LineConfig
object line_configuration {
	name L_100109326_LineConfig;
	conductor_A OHCond_6_CU_I;
	conductor_B OHCond_6_CU_I;
	conductor_C OHCond_6_CU_I;
	spacing OHSpacing_HORIZONTAL_3P_52;
}

// L_100003054_LineConfig
object line_configuration {
	name L_100003054_LineConfig;
	conductor_A OHCond_6_CU_I;
	conductor_B OHCond_6_CU_I;
	conductor_C OHCond_6_CU_I;
	spacing OHSpacing_HORIZONTAL_3P_52;
}

// L_100080092_LineConfig
object line_configuration {
	name L_100080092_LineConfig;
	conductor_A OHCond_6_CU_I;
	conductor_B OHCond_6_CU_I;
	conductor_C OHCond_6_CU_I;
	spacing OHSpacing_HORIZONTAL_3P_52;
}

// L_100003172_LineConfig
object line_configuration {
	name L_100003172_LineConfig;
	conductor_A OHCond_715_AAC_I;
	conductor_B OHCond_715_AAC_I;
	conductor_C OHCond_715_AAC_I;
	spacing OHSpacing_HORIZONTAL_3P_52;
}

// L_100069954_LineConfig
object line_configuration {
	name L_100069954_LineConfig;
	conductor_B OHCond_4_ACSR_I;
	conductor_C OHCond_4_ACSR_I;
	spacing OHSpacing_HORIZONTAL_2P_88;
}

// L_100110151_LineConfig
object line_configuration {
	name L_100110151_LineConfig;
	conductor_A OHCond_6_CU_I;
	conductor_B OHCond_6_CU_I;
	spacing OHSpacing_HORIZONTAL_2P_88;
}

// L_100106495_LineConfig
object line_configuration {
	name L_100106495_LineConfig;
	conductor_A OHCond_4_ACSR_I;
	conductor_B OHCond_4_ACSR_I;
	spacing OHSpacing_HORIZONTAL_2P_88;
}

// L_100080391_LineConfig
object line_configuration {
	name L_100080391_LineConfig;
	conductor_A OHCond_397_AAC_I;
	conductor_B OHCond_397_AAC_I;
	conductor_C OHCond_397_AAC_I;
	spacing OHSpacing_TRIANGULAR_3P_35;
}

// L_100020097_LineConfig
object line_configuration {
	name L_100020097_LineConfig;
	conductor_A OHCond_4_ACSR_I;
	conductor_B OHCond_4_ACSR_I;
	conductor_C OHCond_4_ACSR_I;
	spacing OHSpacing_HORIZONTAL_3P_52;
}

// L_100085355_LineConfig
object line_configuration {
	name L_100085355_LineConfig;
	conductor_B OHCond_4_ACSR_I;
	conductor_C OHCond_4_ACSR_I;
	spacing OHSpacing_HORIZONTAL_2P_88;
}

// L_100108667_LineConfig
object line_configuration {
	name L_100108667_LineConfig;
	conductor_A OHCond_4_ACSR_I;
	conductor_B OHCond_4_ACSR_I;
	spacing OHSpacing_HORIZONTAL_2P_56;
}

// L_100027020_LineConfig
object line_configuration {
	name L_100027020_LineConfig;
	conductor_A OHCond_1/0_AAC_I;
	conductor_C OHCond_1/0_AAC_I;
	spacing OHSpacing_HORIZONTAL_2P_88;
}

// L_100109543_LineConfig
object line_configuration {
	name L_100109543_LineConfig;
	conductor_A OHCond_6_CU_I;
	conductor_B OHCond_6_CU_I;
	conductor_C OHCond_6_CU_I;
	spacing OHSpacing_HORIZONTAL_3P_52;
}

// L_100084970_LineConfig
object line_configuration {
	name L_100084970_LineConfig;
	conductor_A OHCond_4_ACSR_I;
	conductor_B OHCond_4_ACSR_I;
	spacing OHSpacing_HORIZONTAL_2P_88;
}

// L_100104208_LineConfig
object line_configuration {
	name L_100104208_LineConfig;
	conductor_A OHCond_4_ACSR_I;
	conductor_B OHCond_4_ACSR_I;
	spacing OHSpacing_HORIZONTAL_2P_88;
}

// L_100020852_LineConfig
object line_configuration {
	name L_100020852_LineConfig;
	conductor_A OHCond_6_CU_I;
	conductor_B OHCond_6_CU_I;
	spacing OHSpacing_HORIZONTAL_2P_56;
}

// L_100128994_LineConfig
object line_configuration {
	name L_100128994_LineConfig;
	conductor_A OHCond_6_CU_I;
	conductor_B OHCond_6_CU_I;
	spacing OHSpacing_TRIANGULAR_2P_30;
}

// L_100031026_LineConfig
object line_configuration {
	name L_100031026_LineConfig;
	conductor_A OHCond_4_ACSR_I;
...